Version 4
SHEET 1 932 708
WIRE 176 112 176 64
WIRE -48 128 -48 64
WIRE 288 128 288 64
WIRE 288 128 272 128
WIRE 272 192 272 128
WIRE 176 208 176 192
WIRE 240 208 176 208
WIRE 624 224 304 224
WIRE 688 224 624 224
WIRE -48 240 -48 208
WIRE 240 240 -48 240
WIRE 688 240 592 240
WIRE 928 240 752 240
WIRE 176 320 176 208
WIRE 624 384 624 224
WIRE 688 384 624 384
WIRE 688 400 592 400
WIRE 928 400 752 400
WIRE -48 416 -48 400
WIRE 176 416 176 400
FLAG -48 416 0
FLAG -48 64 5V
FLAG 288 64 5V
FLAG -400 128 5V
FLAG -400 208 0
FLAG 176 416 0
FLAG 176 64 5V
FLAG 272 256 0
FLAG -400 560 PE
FLAG -400 640 0
FLAG 592 240 PE
FLAG 0 544 ME
FLAG 0 624 0
FLAG 592 400 ME
SYMBOL res -64 304 R0
SYMATTR InstName Pot
SYMATTR Value 500
SYMBOL voltage -400 112 R0
WINDOW 123 0 0 Left 0
WINDOW 39 0 0 Left 0
SYMATTR InstName V2
SYMATTR Value 5
SYMBOL res -64 112 R0
WINDOW 3 -206 51 Left 2
SYMATTR Value R=1000 + 1120*time
SYMATTR InstName R3
SYMBOL res 160 304 R0
SYMATTR InstName R2
SYMATTR Value 1k
SYMBOL res 160 96 R0
SYMATTR InstName R4
SYMATTR Value 1k
SYMBOL Comparators\\LT1720 272 160 R0
SYMATTR InstName U2
SYMBOL res -64 224 R0
SYMATTR InstName R5
SYMATTR Value 1.1k
SYMBOL Digital\\and 720 192 R0
SYMATTR InstName A1
SYMATTR SpiceLine2 Vhigh=5 Vlow=0 Ref=1.5
SYMBOL voltage -400 544 R0
WINDOW 123 0 0 Left 0
WINDOW 39 0 0 Left 0
SYMATTR InstName V3
SYMATTR Value PWL(0 0 0.299 0 0.3 5)
SYMBOL Digital\\and 720 352 R0
SYMATTR InstName A2
SYMATTR SpiceLine2 Vhigh=5 Vlow=0 Ref=1.5
SYMBOL voltage 0 528 R0
WINDOW 123 0 0 Left 0
WINDOW 39 0 0 Left 0
SYMATTR InstName V1
SYMATTR Value PWL(0 0 0.399 0 0.4 5)
TEXT -432 360 Left 2 !.tran 0 1s 0 0.001
